Circuit: *LTspice


Date: Fri May 31 06:51:03 2024
Total elapsed time: 0.221 seconds.

tnom = 27
temp = 27
method = trap
totiter = 34042
traniter = 0
tranpoints = 0
accept = 0
rejected = 0
matrix size = 25
fillins = 0
solver = Normal
Avg thread counts: 1.1/0.0/1.2/1.1
Matrix Compiler1: 1.97 KB object code size  0.5/0.2/[0.2]
Matrix Compiler2: 2.31 KB object code size  0.2/0.2/[0.1]

