Circuit: *LTspice

Direct Newton iteration failed to find .op point.  (Use ".option noopiter" to skip.)
Starting Gmin stepping
Gmin = 10
Gmin = 1.07374
Gmin = 0.115292
Gmin = 0.0123794
Gmin = 0.00132923
Gmin = 0.000142725
Gmin = 1.5325e-05
Gmin = 1.6455e-06
vernier = 0.5
vernier = 0.25
vernier = 0.125
vernier = 0.0625
vernier = 0.03125
vernier = 0.015625
vernier = 0.0078125
vernier = 0.00390625
vernier = 0.00195312
vernier = 0.000976562
Gmin = 2.05688e-06
vernier = 0.000488281
Gmin = 0
Gmin stepping failed

Starting source stepping with srcstepmethod=0
Source Step = 3.0303%
Source Step = 33.3333%
Source Step = 63.6364%
Source Step = 81.8655%
vernier = 0.00390625
Source Step = 81.8448%
Source Step = 81.8744%
Source Step = 81.904%
Source Step = 81.9336%
Source Step = 81.9632%
vernier = 0.00146484
Source Step = 81.9972%
Source Step = 82.0416%
Source Step = 82.086%
Source Step = 82.1304%
Source Step = 82.1748%
vernier = 0.00219727
Source Step = 82.2236%
Source Step = 82.2902%
Source Step = 82.3568%
Source Step = 82.4234%
Source Step = 82.4899%
vernier = 0.0032959
Source Step = 82.5599%
Source Step = 82.6597%
Source Step = 82.7596%
Source Step = 82.8595%
Source Step = 82.9594%
Source Step = 83.0592%
vernier = 0.00494385
Source Step = 83.209%
Source Step = 83.3589%
Source Step = 83.5087%
Source Step = 83.6585%
Source Step = 83.8083%
vernier = 0.00741577
Source Step = 84.0255%
Source Step = 84.2502%
Source Step = 84.475%
Source Step = 84.6997%
Source Step = 84.9244%
vernier = 0.0111237
Source Step = 85.239%
Source Step = 85.5761%
Source Step = 85.9132%
Source Step = 86.2503%
Source Step = 86.5873%
vernier = 0.0166855
Source Step = 87.0424%
Source Step = 87.548%
Source Step = 88.0536%
Source Step = 88.5593%
Source Step = 89.0649%
vernier = 0.0250282
Source Step = 89.7222%
Source Step = 90.4806%
Source Step = 90.8741%
Source Step = 90.9215%
Source Step = 90.9689%
Source Step = 91.0163%
Source Step = 91.0637%
Source Step = 91.1111%
Source Step = 91.1585%
Source Step = 91.2059%
Source Step = 91.2533%
vernier = 0.0023464
Source Step = 91.3102%
Source Step = 91.3813%
Source Step = 91.4524%
Source Step = 91.5235%
Source Step = 91.5946%
vernier = 0.00351959
Source Step = 91.6763%
Source Step = 91.783%
Source Step = 91.8896%
Source Step = 91.9963%
Source Step = 92.103%
vernier = 0.00527939
Source Step = 92.2203%
Source Step = 92.3803%
Source Step = 92.5402%
Source Step = 92.7002%
Source Step = 92.8602%
vernier = 0.00791909
Source Step = 93.0282%
Source Step = 93.2682%
Source Step = 93.5081%
Source Step = 93.7481%
Source Step = 93.9881%
Source Step = 94.228%
vernier = 0.0118786
Source Step = 94.588%
Source Step = 94.948%
Source Step = 95.3079%
Source Step = 95.6679%
Source Step = 96.0278%
vernier = 0.0178179
Source Step = 96.5498%
Source Step = 97.0897%
Source Step = 97.6296%
Source Step = 98.1696%
Source Step = 98.7095%
vernier = 0.0267269
Source Step = 99.4654%
Source stepping succeeded in finding the operating point.


Date: Fri May 31 11:56:01 2024
Total elapsed time: 0.352 seconds.

tnom = 27
temp = 27
method = trap
totiter = 49139
traniter = 0
tranpoints = 0
accept = 0
rejected = 0
matrix size = 44
fillins = 19
solver = Normal
Avg thread counts: 1.1/0.0/1.2/1.1
Matrix Compiler1:     260 opcodes  0.6/0.6/[0.4]
Matrix Compiler2: 4.39 KB object code size  0.4/0.7/[0.3]

